*SPEF "ieee 1481-1999"
*DESIGN "tiny_user_project"
*DATE "11:11:11 Fri 11 11, 1111"
*VENDOR "OpenRCX"
*PROGRAM "Parallel Extraction"
*VERSION "1.0"
*DESIGN_FLOW "NAME_SCOPE LOCAL" "PIN_CAP NONE"
*DIVIDER /
*DELIMITER :
*BUS_DELIMITER []
*T_UNIT 1 NS
*C_UNIT 1 PF
*R_UNIT 1 OHM
*L_UNIT 1 HENRY

*NAME_MAP
*1 io_in[0]
*2 io_in[10]
*3 io_in[11]
*4 io_in[12]
*5 io_in[13]
*6 io_in[14]
*7 io_in[15]
*8 io_in[16]
*9 io_in[17]
*10 io_in[18]
*11 io_in[19]
*12 io_in[1]
*13 io_in[20]
*14 io_in[21]
*15 io_in[22]
*16 io_in[23]
*17 io_in[24]
*18 io_in[25]
*19 io_in[26]
*20 io_in[27]
*21 io_in[28]
*22 io_in[29]
*23 io_in[2]
*24 io_in[30]
*25 io_in[31]
*26 io_in[32]
*27 io_in[33]
*28 io_in[34]
*29 io_in[35]
*30 io_in[36]
*31 io_in[37]
*32 io_in[3]
*33 io_in[4]
*34 io_in[5]
*35 io_in[6]
*36 io_in[7]
*37 io_in[8]
*38 io_in[9]
*39 net25
*40 net35
*41 net36
*42 net37
*43 net38
*44 net39
*45 net40
*46 net41
*47 net42
*48 net43
*49 net44
*50 net26
*51 net45
*52 net46
*53 net47
*54 net48
*55 net49
*56 net50
*57 net51
*58 net52
*59 net53
*60 net54
*61 net27
*62 net55
*63 net56
*64 net57
*65 net58
*66 net59
*67 net60
*68 net61
*69 net62
*70 net28
*71 net29
*72 net30
*73 net31
*74 net32
*75 net33
*76 net34
*77 net63
*78 net73
*79 net74
*80 net75
*81 net76
*82 net77
*83 net78
*84 net79
*85 net80
*86 net81
*87 net82
*88 net64
*89 net83
*90 net84
*91 net85
*92 net86
*93 net87
*94 net88
*95 net89
*96 net90
*97 net91
*98 io_out[29]
*99 net65
*100 io_out[30]
*101 io_out[31]
*102 io_out[32]
*103 io_out[33]
*104 io_out[34]
*105 io_out[35]
*106 io_out[36]
*107 net92
*108 net66
*109 net67
*110 net68
*111 net69
*112 net70
*113 net71
*114 net72
*117 _000_
*118 _001_
*119 _002_
*120 _003_
*121 _004_
*122 _005_
*123 _006_
*124 _007_
*125 _008_
*126 _009_
*127 _010_
*128 _011_
*129 _012_
*130 _013_
*131 _014_
*132 _015_
*133 _016_
*134 _017_
*135 _018_
*136 _019_
*137 _020_
*138 _021_
*139 _022_
*140 _023_
*141 _024_
*142 _025_
*143 _026_
*144 _027_
*145 _028_
*146 _029_
*147 _030_
*148 _031_
*149 _032_
*150 _033_
*151 _034_
*152 _035_
*153 _036_
*154 _037_
*155 _038_
*156 _039_
*157 _040_
*158 _041_
*159 _042_
*160 _043_
*161 _044_
*162 _045_
*163 _046_
*164 _047_
*165 _048_
*166 _049_
*167 _050_
*168 _051_
*169 _052_
*170 _053_
*171 _054_
*172 _055_
*173 _056_
*174 _057_
*175 _058_
*176 _059_
*177 _060_
*178 net1
*179 net10
*180 net11
*181 net12
*182 net13
*183 net14
*184 net15
*185 net16
*186 net17
*187 net18
*188 net19
*189 net2
*190 net20
*191 net21
*192 net22
*193 net23
*194 net24
*195 net3
*196 net4
*197 net5
*198 net6
*199 net7
*200 net8
*201 net9
*202 ANTENNA__061__A
*203 ANTENNA__061__B
*204 ANTENNA__061__C
*205 ANTENNA__061__D
*206 ANTENNA__062__A
*207 ANTENNA__062__B
*208 ANTENNA__062__C
*209 ANTENNA__062__D
*210 ANTENNA__071__A
*211 ANTENNA__071__B_N
*212 ANTENNA__072__A
*213 ANTENNA__075__A
*214 ANTENNA__075__B
*215 ANTENNA__076__A
*216 ANTENNA__076__B
*217 ANTENNA__077__A
*218 ANTENNA__077__B
*219 ANTENNA__078__A
*220 ANTENNA__078__B_N
*221 ANTENNA__082__A
*222 ANTENNA__082__B
*223 ANTENNA__082__C
*224 ANTENNA__082__D_N
*225 ANTENNA__086__A
*226 ANTENNA__086__B_N
*227 ANTENNA__087__A
*228 ANTENNA__087__B
*229 ANTENNA__091__A
*230 ANTENNA__091__B
*231 ANTENNA__092__A
*232 ANTENNA__092__B
*233 ANTENNA__096__A
*234 ANTENNA__096__B_N
*235 ANTENNA__099__A
*236 ANTENNA__100__A1
*237 ANTENNA__102__A1
*238 ANTENNA__108__A1
*239 ANTENNA__115__A1
*240 ANTENNA__119__A1
*241 ANTENNA__120__A
*242 ANTENNA__120__B
*243 ANTENNA__125__A
*244 ANTENNA__129__A1
*245 ANTENNA_input10_A
*246 ANTENNA_input11_A
*247 ANTENNA_input12_A
*248 ANTENNA_input13_A
*249 ANTENNA_input14_A
*250 ANTENNA_input15_A
*251 ANTENNA_input16_A
*252 ANTENNA_input1_A
*253 ANTENNA_input2_A
*254 ANTENNA_input3_A
*255 ANTENNA_input4_A
*256 ANTENNA_input5_A
*257 ANTENNA_input6_A
*258 ANTENNA_input7_A
*259 ANTENNA_input8_A
*260 ANTENNA_input9_A
*261 ANTENNA_output21_A
*262 ANTENNA_output22_A
*263 ANTENNA_output23_A
*264 ANTENNA_output24_A
*265 FILLER_0_109
*266 FILLER_0_113
*267 FILLER_0_125
*268 FILLER_0_137
*269 FILLER_0_141
*270 FILLER_0_15
*271 FILLER_0_153
*272 FILLER_0_165
*273 FILLER_0_169
*274 FILLER_0_181
*275 FILLER_0_193
*276 FILLER_0_197
*277 FILLER_0_209
*278 FILLER_0_221
*279 FILLER_0_225
*280 FILLER_0_237
*281 FILLER_0_249
*282 FILLER_0_253
*283 FILLER_0_265
*284 FILLER_0_27
*285 FILLER_0_277
*286 FILLER_0_281
*287 FILLER_0_29
*288 FILLER_0_293
*289 FILLER_0_3
*290 FILLER_0_41
*291 FILLER_0_53
*292 FILLER_0_57
*293 FILLER_0_69
*294 FILLER_0_81
*295 FILLER_0_85
*296 FILLER_0_97
*297 FILLER_10_109
*298 FILLER_10_121
*299 FILLER_10_133
*300 FILLER_10_139
*301 FILLER_10_141
*302 FILLER_10_15
*303 FILLER_10_153
*304 FILLER_10_165
*305 FILLER_10_177
*306 FILLER_10_189
*307 FILLER_10_195
*308 FILLER_10_197
*309 FILLER_10_209
*310 FILLER_10_221
*311 FILLER_10_233
*312 FILLER_10_245
*313 FILLER_10_251
*314 FILLER_10_253
*315 FILLER_10_265
*316 FILLER_10_27
*317 FILLER_10_277
*318 FILLER_10_289
*319 FILLER_10_29
*320 FILLER_10_293
*321 FILLER_10_297
*322 FILLER_10_3
*323 FILLER_10_41
*324 FILLER_10_53
*325 FILLER_10_65
*326 FILLER_10_77
*327 FILLER_10_83
*328 FILLER_10_85
*329 FILLER_10_9
*330 FILLER_10_97
*331 FILLER_11_105
*332 FILLER_11_111
*333 FILLER_11_113
*334 FILLER_11_125
*335 FILLER_11_137
*336 FILLER_11_149
*337 FILLER_11_15
*338 FILLER_11_161
*339 FILLER_11_167
*340 FILLER_11_169
*341 FILLER_11_181
*342 FILLER_11_193
*343 FILLER_11_205
*344 FILLER_11_217
*345 FILLER_11_223
*346 FILLER_11_225
*347 FILLER_11_237
*348 FILLER_11_249
*349 FILLER_11_261
*350 FILLER_11_27
*351 FILLER_11_273
*352 FILLER_11_279
*353 FILLER_11_281
*354 FILLER_11_293
*355 FILLER_11_3
*356 FILLER_11_39
*357 FILLER_11_51
*358 FILLER_11_55
*359 FILLER_11_57
*360 FILLER_11_69
*361 FILLER_11_81
*362 FILLER_11_93
*363 FILLER_12_109
*364 FILLER_12_121
*365 FILLER_12_133
*366 FILLER_12_139
*367 FILLER_12_141
*368 FILLER_12_15
*369 FILLER_12_153
*370 FILLER_12_165
*371 FILLER_12_177
*372 FILLER_12_189
*373 FILLER_12_195
*374 FILLER_12_197
*375 FILLER_12_209
*376 FILLER_12_221
*377 FILLER_12_233
*378 FILLER_12_245
*379 FILLER_12_251
*380 FILLER_12_253
*381 FILLER_12_265
*382 FILLER_12_27
*383 FILLER_12_277
*384 FILLER_12_289
*385 FILLER_12_29
*386 FILLER_12_293
*387 FILLER_12_297
*388 FILLER_12_3
*389 FILLER_12_41
*390 FILLER_12_53
*391 FILLER_12_65
*392 FILLER_12_77
*393 FILLER_12_83
*394 FILLER_12_85
*395 FILLER_12_97
*396 FILLER_13_105
*397 FILLER_13_111
*398 FILLER_13_113
*399 FILLER_13_125
*400 FILLER_13_137
*401 FILLER_13_149
*402 FILLER_13_161
*403 FILLER_13_167
*404 FILLER_13_169
*405 FILLER_13_181
*406 FILLER_13_193
*407 FILLER_13_20
*408 FILLER_13_205
*409 FILLER_13_217
*410 FILLER_13_223
*411 FILLER_13_225
*412 FILLER_13_237
*413 FILLER_13_249
*414 FILLER_13_261
*415 FILLER_13_273
*416 FILLER_13_279
*417 FILLER_13_281
*418 FILLER_13_293
*419 FILLER_13_297
*420 FILLER_13_3
*421 FILLER_13_32
*422 FILLER_13_44
*423 FILLER_13_57
*424 FILLER_13_69
*425 FILLER_13_8
*426 FILLER_13_81
*427 FILLER_13_93
*428 FILLER_14_109
*429 FILLER_14_121
*430 FILLER_14_133
*431 FILLER_14_139
*432 FILLER_14_141
*433 FILLER_14_15
*434 FILLER_14_153
*435 FILLER_14_165
*436 FILLER_14_177
*437 FILLER_14_189
*438 FILLER_14_195
*439 FILLER_14_197
*440 FILLER_14_209
*441 FILLER_14_221
*442 FILLER_14_233
*443 FILLER_14_245
*444 FILLER_14_251
*445 FILLER_14_253
*446 FILLER_14_265
*447 FILLER_14_27
*448 FILLER_14_277
*449 FILLER_14_289
*450 FILLER_14_29
*451 FILLER_14_297
*452 FILLER_14_3
*453 FILLER_14_41
*454 FILLER_14_53
*455 FILLER_14_65
*456 FILLER_14_77
*457 FILLER_14_83
*458 FILLER_14_85
*459 FILLER_14_9
*460 FILLER_14_97
*461 FILLER_15_105
*462 FILLER_15_111
*463 FILLER_15_113
*464 FILLER_15_125
*465 FILLER_15_137
*466 FILLER_15_149
*467 FILLER_15_15
*468 FILLER_15_161
*469 FILLER_15_167
*470 FILLER_15_169
*471 FILLER_15_181
*472 FILLER_15_193
*473 FILLER_15_205
*474 FILLER_15_217
*475 FILLER_15_223
*476 FILLER_15_225
*477 FILLER_15_237
*478 FILLER_15_249
*479 FILLER_15_261
*480 FILLER_15_27
*481 FILLER_15_273
*482 FILLER_15_279
*483 FILLER_15_281
*484 FILLER_15_293
*485 FILLER_15_3
*486 FILLER_15_39
*487 FILLER_15_51
*488 FILLER_15_55
*489 FILLER_15_57
*490 FILLER_15_69
*491 FILLER_15_81
*492 FILLER_15_93
*493 FILLER_16_109
*494 FILLER_16_121
*495 FILLER_16_133
*496 FILLER_16_139
*497 FILLER_16_141
*498 FILLER_16_15
*499 FILLER_16_153
*500 FILLER_16_165
*501 FILLER_16_177
*502 FILLER_16_189
*503 FILLER_16_195
*504 FILLER_16_197
*505 FILLER_16_209
*506 FILLER_16_221
*507 FILLER_16_233
*508 FILLER_16_245
*509 FILLER_16_251
*510 FILLER_16_253
*511 FILLER_16_265
*512 FILLER_16_27
*513 FILLER_16_277
*514 FILLER_16_289
*515 FILLER_16_29
*516 FILLER_16_293
*517 FILLER_16_297
*518 FILLER_16_3
*519 FILLER_16_41
*520 FILLER_16_53
*521 FILLER_16_65
*522 FILLER_16_77
*523 FILLER_16_83
*524 FILLER_16_85
*525 FILLER_16_97
*526 FILLER_17_105
*527 FILLER_17_111
*528 FILLER_17_113
*529 FILLER_17_125
*530 FILLER_17_137
*531 FILLER_17_149
*532 FILLER_17_161
*533 FILLER_17_167
*534 FILLER_17_169
*535 FILLER_17_181
*536 FILLER_17_193
*537 FILLER_17_20
*538 FILLER_17_205
*539 FILLER_17_217
*540 FILLER_17_223
*541 FILLER_17_225
*542 FILLER_17_237
*543 FILLER_17_249
*544 FILLER_17_261
*545 FILLER_17_273
*546 FILLER_17_279
*547 FILLER_17_281
*548 FILLER_17_293
*549 FILLER_17_297
*550 FILLER_17_3
*551 FILLER_17_32
*552 FILLER_17_44
*553 FILLER_17_57
*554 FILLER_17_69
*555 FILLER_17_8
*556 FILLER_17_81
*557 FILLER_17_93
*558 FILLER_18_109
*559 FILLER_18_121
*560 FILLER_18_133
*561 FILLER_18_139
*562 FILLER_18_141
*563 FILLER_18_15
*564 FILLER_18_153
*565 FILLER_18_165
*566 FILLER_18_177
*567 FILLER_18_189
*568 FILLER_18_195
*569 FILLER_18_197
*570 FILLER_18_209
*571 FILLER_18_221
*572 FILLER_18_233
*573 FILLER_18_245
*574 FILLER_18_251
*575 FILLER_18_253
*576 FILLER_18_265
*577 FILLER_18_27
*578 FILLER_18_277
*579 FILLER_18_289
*580 FILLER_18_29
*581 FILLER_18_297
*582 FILLER_18_3
*583 FILLER_18_41
*584 FILLER_18_53
*585 FILLER_18_65
*586 FILLER_18_77
*587 FILLER_18_83
*588 FILLER_18_85
*589 FILLER_18_9
*590 FILLER_18_97
*591 FILLER_19_105
*592 FILLER_19_111
*593 FILLER_19_113
*594 FILLER_19_125
*595 FILLER_19_137
*596 FILLER_19_149
*597 FILLER_19_15
*598 FILLER_19_161
*599 FILLER_19_167
*600 FILLER_19_169
*601 FILLER_19_181
*602 FILLER_19_193
*603 FILLER_19_205
*604 FILLER_19_217
*605 FILLER_19_223
*606 FILLER_19_225
*607 FILLER_19_237
*608 FILLER_19_249
*609 FILLER_19_261
*610 FILLER_19_27
*611 FILLER_19_273
*612 FILLER_19_279
*613 FILLER_19_281
*614 FILLER_19_293
*615 FILLER_19_3
*616 FILLER_19_39
*617 FILLER_19_51
*618 FILLER_19_55
*619 FILLER_19_57
*620 FILLER_19_69
*621 FILLER_19_81
*622 FILLER_19_93
*623 FILLER_1_105
*624 FILLER_1_111
*625 FILLER_1_113
*626 FILLER_1_125
*627 FILLER_1_137
*628 FILLER_1_149
*629 FILLER_1_15
*630 FILLER_1_161
*631 FILLER_1_167
*632 FILLER_1_169
*633 FILLER_1_181
*634 FILLER_1_193
*635 FILLER_1_205
*636 FILLER_1_217
*637 FILLER_1_223
*638 FILLER_1_225
*639 FILLER_1_237
*640 FILLER_1_249
*641 FILLER_1_261
*642 FILLER_1_27
*643 FILLER_1_273
*644 FILLER_1_279
*645 FILLER_1_281
*646 FILLER_1_293
*647 FILLER_1_297
*648 FILLER_1_3
*649 FILLER_1_39
*650 FILLER_1_51
*651 FILLER_1_55
*652 FILLER_1_57
*653 FILLER_1_69
*654 FILLER_1_81
*655 FILLER_1_93
*656 FILLER_20_109
*657 FILLER_20_121
*658 FILLER_20_133
*659 FILLER_20_139
*660 FILLER_20_141
*661 FILLER_20_153
*662 FILLER_20_165
*663 FILLER_20_177
*664 FILLER_20_189
*665 FILLER_20_195
*666 FILLER_20_197
*667 FILLER_20_20
*668 FILLER_20_209
*669 FILLER_20_221
*670 FILLER_20_233
*671 FILLER_20_245
*672 FILLER_20_251
*673 FILLER_20_253
*674 FILLER_20_265
*675 FILLER_20_277
*676 FILLER_20_289
*677 FILLER_20_29
*678 FILLER_20_293
*679 FILLER_20_297
*680 FILLER_20_3
*681 FILLER_20_41
*682 FILLER_20_53
*683 FILLER_20_65
*684 FILLER_20_77
*685 FILLER_20_8
*686 FILLER_20_83
*687 FILLER_20_85
*688 FILLER_20_97
*689 FILLER_21_105
*690 FILLER_21_111
*691 FILLER_21_113
*692 FILLER_21_125
*693 FILLER_21_137
*694 FILLER_21_149
*695 FILLER_21_15
*696 FILLER_21_161
*697 FILLER_21_167
*698 FILLER_21_169
*699 FILLER_21_181
*700 FILLER_21_193
*701 FILLER_21_205
*702 FILLER_21_217
*703 FILLER_21_223
*704 FILLER_21_225
*705 FILLER_21_237
*706 FILLER_21_249
*707 FILLER_21_261
*708 FILLER_21_27
*709 FILLER_21_273
*710 FILLER_21_279
*711 FILLER_21_281
*712 FILLER_21_293
*713 FILLER_21_297
*714 FILLER_21_3
*715 FILLER_21_39
*716 FILLER_21_51
*717 FILLER_21_55
*718 FILLER_21_57
*719 FILLER_21_69
*720 FILLER_21_81
*721 FILLER_21_93
*722 FILLER_22_109
*723 FILLER_22_121
*724 FILLER_22_133
*725 FILLER_22_139
*726 FILLER_22_141
*727 FILLER_22_153
*728 FILLER_22_165
*729 FILLER_22_177
*730 FILLER_22_189
*731 FILLER_22_195
*732 FILLER_22_197
*733 FILLER_22_209
*734 FILLER_22_21
*735 FILLER_22_221
*736 FILLER_22_233
*737 FILLER_22_245
*738 FILLER_22_251
*739 FILLER_22_253
*740 FILLER_22_265
*741 FILLER_22_27
*742 FILLER_22_277
*743 FILLER_22_289
*744 FILLER_22_29
*745 FILLER_22_297
*746 FILLER_22_3
*747 FILLER_22_41
*748 FILLER_22_53
*749 FILLER_22_65
*750 FILLER_22_77
*751 FILLER_22_83
*752 FILLER_22_85
*753 FILLER_22_9
*754 FILLER_22_97
*755 FILLER_23_105
*756 FILLER_23_111
*757 FILLER_23_113
*758 FILLER_23_125
*759 FILLER_23_137
*760 FILLER_23_149
*761 FILLER_23_15
*762 FILLER_23_161
*763 FILLER_23_167
*764 FILLER_23_169
*765 FILLER_23_181
*766 FILLER_23_193
*767 FILLER_23_205
*768 FILLER_23_217
*769 FILLER_23_223
*770 FILLER_23_225
*771 FILLER_23_237
*772 FILLER_23_249
*773 FILLER_23_261
*774 FILLER_23_27
*775 FILLER_23_273
*776 FILLER_23_279
*777 FILLER_23_281
*778 FILLER_23_293
*779 FILLER_23_297
*780 FILLER_23_3
*781 FILLER_23_39
*782 FILLER_23_51
*783 FILLER_23_55
*784 FILLER_23_57
*785 FILLER_23_69
*786 FILLER_23_81
*787 FILLER_23_93
*788 FILLER_24_109
*789 FILLER_24_121
*790 FILLER_24_133
*791 FILLER_24_139
*792 FILLER_24_141
*793 FILLER_24_153
*794 FILLER_24_165
*795 FILLER_24_177
*796 FILLER_24_189
*797 FILLER_24_195
*798 FILLER_24_197
*799 FILLER_24_20
*800 FILLER_24_209
*801 FILLER_24_221
*802 FILLER_24_233
*803 FILLER_24_245
*804 FILLER_24_251
*805 FILLER_24_253
*806 FILLER_24_265
*807 FILLER_24_277
*808 FILLER_24_289
*809 FILLER_24_29
*810 FILLER_24_297
*811 FILLER_24_3
*812 FILLER_24_41
*813 FILLER_24_53
*814 FILLER_24_65
*815 FILLER_24_77
*816 FILLER_24_8
*817 FILLER_24_83
*818 FILLER_24_85
*819 FILLER_24_97
*820 FILLER_25_105
*821 FILLER_25_111
*822 FILLER_25_113
*823 FILLER_25_125
*824 FILLER_25_137
*825 FILLER_25_149
*826 FILLER_25_161
*827 FILLER_25_167
*828 FILLER_25_169
*829 FILLER_25_181
*830 FILLER_25_193
*831 FILLER_25_205
*832 FILLER_25_21
*833 FILLER_25_217
*834 FILLER_25_223
*835 FILLER_25_225
*836 FILLER_25_237
*837 FILLER_25_249
*838 FILLER_25_261
*839 FILLER_25_273
*840 FILLER_25_279
*841 FILLER_25_281
*842 FILLER_25_293
*843 FILLER_25_297
*844 FILLER_25_3
*845 FILLER_25_33
*846 FILLER_25_45
*847 FILLER_25_53
*848 FILLER_25_57
*849 FILLER_25_69
*850 FILLER_25_81
*851 FILLER_25_9
*852 FILLER_25_93
*853 FILLER_26_109
*854 FILLER_26_121
*855 FILLER_26_133
*856 FILLER_26_139
*857 FILLER_26_141
*858 FILLER_26_15
*859 FILLER_26_153
*860 FILLER_26_165
*861 FILLER_26_177
*862 FILLER_26_189
*863 FILLER_26_195
*864 FILLER_26_197
*865 FILLER_26_209
*866 FILLER_26_221
*867 FILLER_26_233
*868 FILLER_26_245
*869 FILLER_26_251
*870 FILLER_26_253
*871 FILLER_26_265
*872 FILLER_26_27
*873 FILLER_26_277
*874 FILLER_26_289
*875 FILLER_26_29
*876 FILLER_26_297
*877 FILLER_26_3
*878 FILLER_26_41
*879 FILLER_26_53
*880 FILLER_26_65
*881 FILLER_26_77
*882 FILLER_26_83
*883 FILLER_26_85
*884 FILLER_26_97
*885 FILLER_27_105
*886 FILLER_27_111
*887 FILLER_27_113
*888 FILLER_27_125
*889 FILLER_27_137
*890 FILLER_27_149
*891 FILLER_27_15
*892 FILLER_27_161
*893 FILLER_27_167
*894 FILLER_27_169
*895 FILLER_27_181
*896 FILLER_27_193
*897 FILLER_27_205
*898 FILLER_27_217
*899 FILLER_27_223
*900 FILLER_27_225
*901 FILLER_27_237
*902 FILLER_27_249
*903 FILLER_27_261
*904 FILLER_27_27
*905 FILLER_27_273
*906 FILLER_27_279
*907 FILLER_27_281
*908 FILLER_27_293
*909 FILLER_27_297
*910 FILLER_27_3
*911 FILLER_27_39
*912 FILLER_27_51
*913 FILLER_27_55
*914 FILLER_27_57
*915 FILLER_27_69
*916 FILLER_27_81
*917 FILLER_27_93
*918 FILLER_28_109
*919 FILLER_28_121
*920 FILLER_28_133
*921 FILLER_28_139
*922 FILLER_28_141
*923 FILLER_28_153
*924 FILLER_28_158
*925 FILLER_28_170
*926 FILLER_28_182
*927 FILLER_28_194
*928 FILLER_28_197
*929 FILLER_28_20
*930 FILLER_28_209
*931 FILLER_28_221
*932 FILLER_28_233
*933 FILLER_28_245
*934 FILLER_28_251
*935 FILLER_28_253
*936 FILLER_28_265
*937 FILLER_28_277
*938 FILLER_28_289
*939 FILLER_28_29
*940 FILLER_28_293
*941 FILLER_28_297
*942 FILLER_28_3
*943 FILLER_28_41
*944 FILLER_28_53
*945 FILLER_28_65
*946 FILLER_28_77
*947 FILLER_28_8
*948 FILLER_28_83
*949 FILLER_28_85
*950 FILLER_28_97
*951 FILLER_29_105
*952 FILLER_29_111
*953 FILLER_29_113
*954 FILLER_29_125
*955 FILLER_29_137
*956 FILLER_29_145
*957 FILLER_29_150
*958 FILLER_29_156
*959 FILLER_29_159
*960 FILLER_29_165
*961 FILLER_29_169
*962 FILLER_29_181
*963 FILLER_29_193
*964 FILLER_29_205
*965 FILLER_29_21
*966 FILLER_29_217
*967 FILLER_29_223
*968 FILLER_29_225
*969 FILLER_29_237
*970 FILLER_29_249
*971 FILLER_29_261
*972 FILLER_29_273
*973 FILLER_29_279
*974 FILLER_29_281
*975 FILLER_29_293
*976 FILLER_29_3
*977 FILLER_29_33
*978 FILLER_29_45
*979 FILLER_29_53
*980 FILLER_29_57
*981 FILLER_29_69
*982 FILLER_29_81
*983 FILLER_29_9
*984 FILLER_29_93
*985 FILLER_2_109
*986 FILLER_2_121
*987 FILLER_2_133
*988 FILLER_2_139
*989 FILLER_2_141
*990 FILLER_2_153
*991 FILLER_2_165
*992 FILLER_2_177
*993 FILLER_2_189
*994 FILLER_2_195
*995 FILLER_2_197
*996 FILLER_2_20
*997 FILLER_2_209
*998 FILLER_2_221
*999 FILLER_2_233
*1000 FILLER_2_245
*1001 FILLER_2_251
*1002 FILLER_2_253
*1003 FILLER_2_265
*1004 FILLER_2_277
*1005 FILLER_2_289
*1006 FILLER_2_29
*1007 FILLER_2_293
*1008 FILLER_2_297
*1009 FILLER_2_3
*1010 FILLER_2_41
*1011 FILLER_2_53
*1012 FILLER_2_65
*1013 FILLER_2_77
*1014 FILLER_2_8
*1015 FILLER_2_83
*1016 FILLER_2_85
*1017 FILLER_2_97
*1018 FILLER_30_109
*1019 FILLER_30_121
*1020 FILLER_30_128
*1021 FILLER_30_132
*1022 FILLER_30_135
*1023 FILLER_30_139
*1024 FILLER_30_141
*1025 FILLER_30_145
*1026 FILLER_30_15
*1027 FILLER_30_154
*1028 FILLER_30_161
*1029 FILLER_30_165
*1030 FILLER_30_168
*1031 FILLER_30_174
*1032 FILLER_30_186
*1033 FILLER_30_194
*1034 FILLER_30_197
*1035 FILLER_30_209
*1036 FILLER_30_221
*1037 FILLER_30_233
*1038 FILLER_30_245
*1039 FILLER_30_251
*1040 FILLER_30_253
*1041 FILLER_30_265
*1042 FILLER_30_27
*1043 FILLER_30_277
*1044 FILLER_30_285
*1045 FILLER_30_289
*1046 FILLER_30_29
*1047 FILLER_30_297
*1048 FILLER_30_3
*1049 FILLER_30_41
*1050 FILLER_30_53
*1051 FILLER_30_65
*1052 FILLER_30_77
*1053 FILLER_30_83
*1054 FILLER_30_85
*1055 FILLER_30_97
*1056 FILLER_31_105
*1057 FILLER_31_111
*1058 FILLER_31_113
*1059 FILLER_31_121
*1060 FILLER_31_127
*1061 FILLER_31_133
*1062 FILLER_31_136
*1063 FILLER_31_145
*1064 FILLER_31_15
*1065 FILLER_31_155
*1066 FILLER_31_164
*1067 FILLER_31_169
*1068 FILLER_31_173
*1069 FILLER_31_179
*1070 FILLER_31_185
*1071 FILLER_31_197
*1072 FILLER_31_209
*1073 FILLER_31_221
*1074 FILLER_31_225
*1075 FILLER_31_237
*1076 FILLER_31_249
*1077 FILLER_31_261
*1078 FILLER_31_27
*1079 FILLER_31_273
*1080 FILLER_31_279
*1081 FILLER_31_281
*1082 FILLER_31_293
*1083 FILLER_31_297
*1084 FILLER_31_3
*1085 FILLER_31_39
*1086 FILLER_31_51
*1087 FILLER_31_55
*1088 FILLER_31_57
*1089 FILLER_31_69
*1090 FILLER_31_81
*1091 FILLER_31_93
*1092 FILLER_32_109
*1093 FILLER_32_117
*1094 FILLER_32_120
*1095 FILLER_32_128
*1096 FILLER_32_138
*1097 FILLER_32_141
*1098 FILLER_32_145
*1099 FILLER_32_153
*1100 FILLER_32_163
*1101 FILLER_32_172
*1102 FILLER_32_179
*1103 FILLER_32_185
*1104 FILLER_32_191
*1105 FILLER_32_195
*1106 FILLER_32_197
*1107 FILLER_32_20
*1108 FILLER_32_209
*1109 FILLER_32_221
*1110 FILLER_32_233
*1111 FILLER_32_245
*1112 FILLER_32_251
*1113 FILLER_32_253
*1114 FILLER_32_265
*1115 FILLER_32_277
*1116 FILLER_32_289
*1117 FILLER_32_29
*1118 FILLER_32_293
*1119 FILLER_32_297
*1120 FILLER_32_3
*1121 FILLER_32_41
*1122 FILLER_32_53
*1123 FILLER_32_65
*1124 FILLER_32_77
*1125 FILLER_32_8
*1126 FILLER_32_83
*1127 FILLER_32_85
*1128 FILLER_32_97
*1129 FILLER_33_105
*1130 FILLER_33_110
*1131 FILLER_33_113
*1132 FILLER_33_117
*1133 FILLER_33_122
*1134 FILLER_33_133
*1135 FILLER_33_146
*1136 FILLER_33_158
*1137 FILLER_33_166
*1138 FILLER_33_169
*1139 FILLER_33_177
*1140 FILLER_33_184
*1141 FILLER_33_190
*1142 FILLER_33_196
*1143 FILLER_33_202
*1144 FILLER_33_21
*1145 FILLER_33_214
*1146 FILLER_33_222
*1147 FILLER_33_225
*1148 FILLER_33_237
*1149 FILLER_33_249
*1150 FILLER_33_261
*1151 FILLER_33_273
*1152 FILLER_33_279
*1153 FILLER_33_281
*1154 FILLER_33_289
*1155 FILLER_33_297
*1156 FILLER_33_3
*1157 FILLER_33_33
*1158 FILLER_33_45
*1159 FILLER_33_53
*1160 FILLER_33_57
*1161 FILLER_33_69
*1162 FILLER_33_81
*1163 FILLER_33_9
*1164 FILLER_33_93
*1165 FILLER_34_105
*1166 FILLER_34_108
*1167 FILLER_34_115
*1168 FILLER_34_125
*1169 FILLER_34_138
*1170 FILLER_34_141
*1171 FILLER_34_15
*1172 FILLER_34_157
*1173 FILLER_34_169
*1174 FILLER_34_179
*1175 FILLER_34_188
*1176 FILLER_34_194
*1177 FILLER_34_197
*1178 FILLER_34_201
*1179 FILLER_34_207
*1180 FILLER_34_219
*1181 FILLER_34_231
*1182 FILLER_34_243
*1183 FILLER_34_251
*1184 FILLER_34_253
*1185 FILLER_34_265
*1186 FILLER_34_27
*1187 FILLER_34_277
*1188 FILLER_34_289
*1189 FILLER_34_29
*1190 FILLER_34_297
*1191 FILLER_34_3
*1192 FILLER_34_41
*1193 FILLER_34_53
*1194 FILLER_34_65
*1195 FILLER_34_77
*1196 FILLER_34_83
*1197 FILLER_34_85
*1198 FILLER_34_97
*1199 FILLER_35_101
*1200 FILLER_35_110
*1201 FILLER_35_113
*1202 FILLER_35_117
*1203 FILLER_35_128
*1204 FILLER_35_141
*1205 FILLER_35_158
*1206 FILLER_35_166
*1207 FILLER_35_169
*1208 FILLER_35_179
*1209 FILLER_35_189
*1210 FILLER_35_198
*1211 FILLER_35_20
*1212 FILLER_35_205
*1213 FILLER_35_211
*1214 FILLER_35_223
*1215 FILLER_35_225
*1216 FILLER_35_237
*1217 FILLER_35_249
*1218 FILLER_35_261
*1219 FILLER_35_273
*1220 FILLER_35_279
*1221 FILLER_35_281
*1222 FILLER_35_293
*1223 FILLER_35_297
*1224 FILLER_35_3
*1225 FILLER_35_32
*1226 FILLER_35_44
*1227 FILLER_35_57
*1228 FILLER_35_69
*1229 FILLER_35_8
*1230 FILLER_35_81
*1231 FILLER_35_93
*1232 FILLER_35_97
*1233 FILLER_36_109
*1234 FILLER_36_116
*1235 FILLER_36_127
*1236 FILLER_36_138
*1237 FILLER_36_141
*1238 FILLER_36_15
*1239 FILLER_36_153
*1240 FILLER_36_165
*1241 FILLER_36_176
*1242 FILLER_36_185
*1243 FILLER_36_193
*1244 FILLER_36_197
*1245 FILLER_36_201
*1246 FILLER_36_207
*1247 FILLER_36_219
*1248 FILLER_36_231
*1249 FILLER_36_243
*1250 FILLER_36_251
*1251 FILLER_36_253
*1252 FILLER_36_265
*1253 FILLER_36_27
*1254 FILLER_36_277
*1255 FILLER_36_289
*1256 FILLER_36_29
*1257 FILLER_36_293
*1258 FILLER_36_297
*1259 FILLER_36_3
*1260 FILLER_36_41
*1261 FILLER_36_53
*1262 FILLER_36_65
*1263 FILLER_36_77
*1264 FILLER_36_83
*1265 FILLER_36_85
*1266 FILLER_36_97
*1267 FILLER_37_105
*1268 FILLER_37_111
*1269 FILLER_37_113
*1270 FILLER_37_117
*1271 FILLER_37_122
*1272 FILLER_37_132
*1273 FILLER_37_143
*1274 FILLER_37_155
*1275 FILLER_37_166
*1276 FILLER_37_169
*1277 FILLER_37_178
*1278 FILLER_37_185
*1279 FILLER_37_191
*1280 FILLER_37_197
*1281 FILLER_37_20
*1282 FILLER_37_209
*1283 FILLER_37_221
*1284 FILLER_37_225
*1285 FILLER_37_237
*1286 FILLER_37_249
*1287 FILLER_37_261
*1288 FILLER_37_273
*1289 FILLER_37_279
*1290 FILLER_37_281
*1291 FILLER_37_289
*1292 FILLER_37_297
*1293 FILLER_37_3
*1294 FILLER_37_32
*1295 FILLER_37_44
*1296 FILLER_37_57
*1297 FILLER_37_69
*1298 FILLER_37_8
*1299 FILLER_37_81
*1300 FILLER_37_93
*1301 FILLER_38_109
*1302 FILLER_38_121
*1303 FILLER_38_129
*1304 FILLER_38_138
*1305 FILLER_38_141
*1306 FILLER_38_15
*1307 FILLER_38_150
*1308 FILLER_38_154
*1309 FILLER_38_163
*1310 FILLER_38_173
*1311 FILLER_38_180
*1312 FILLER_38_186
*1313 FILLER_38_192
*1314 FILLER_38_197
*1315 FILLER_38_201
*1316 FILLER_38_207
*1317 FILLER_38_219
*1318 FILLER_38_231
*1319 FILLER_38_243
*1320 FILLER_38_251
*1321 FILLER_38_253
*1322 FILLER_38_265
*1323 FILLER_38_27
*1324 FILLER_38_277
*1325 FILLER_38_289
*1326 FILLER_38_29
*1327 FILLER_38_293
*1328 FILLER_38_297
*1329 FILLER_38_3
*1330 FILLER_38_41
*1331 FILLER_38_53
*1332 FILLER_38_65
*1333 FILLER_38_77
*1334 FILLER_38_83
*1335 FILLER_38_85
*1336 FILLER_38_97
*1337 FILLER_39_105
*1338 FILLER_39_111
*1339 FILLER_39_113
*1340 FILLER_39_125
*1341 FILLER_39_135
*1342 FILLER_39_144
*1343 FILLER_39_155
*1344 FILLER_39_165
*1345 FILLER_39_169
*1346 FILLER_39_173
*1347 FILLER_39_179
*1348 FILLER_39_185
*1349 FILLER_39_191
*1350 FILLER_39_197
*1351 FILLER_39_20
*1352 FILLER_39_209
*1353 FILLER_39_221
*1354 FILLER_39_225
*1355 FILLER_39_237
*1356 FILLER_39_249
*1357 FILLER_39_261
*1358 FILLER_39_273
*1359 FILLER_39_279
*1360 FILLER_39_281
*1361 FILLER_39_293
*1362 FILLER_39_3
*1363 FILLER_39_32
*1364 FILLER_39_44
*1365 FILLER_39_57
*1366 FILLER_39_69
*1367 FILLER_39_8
*1368 FILLER_39_81
*1369 FILLER_39_93
*1370 FILLER_3_105
*1371 FILLER_3_111
*1372 FILLER_3_113
*1373 FILLER_3_125
*1374 FILLER_3_137
*1375 FILLER_3_149
*1376 FILLER_3_161
*1377 FILLER_3_167
*1378 FILLER_3_169
*1379 FILLER_3_181
*1380 FILLER_3_193
*1381 FILLER_3_20
*1382 FILLER_3_205
*1383 FILLER_3_217
*1384 FILLER_3_223
*1385 FILLER_3_225
*1386 FILLER_3_237
*1387 FILLER_3_249
*1388 FILLER_3_261
*1389 FILLER_3_273
*1390 FILLER_3_279
*1391 FILLER_3_281
*1392 FILLER_3_293
*1393 FILLER_3_3
*1394 FILLER_3_32
*1395 FILLER_3_44
*1396 FILLER_3_57
*1397 FILLER_3_69
*1398 FILLER_3_8
*1399 FILLER_3_81
*1400 FILLER_3_93
*1401 FILLER_40_109
*1402 FILLER_40_121
*1403 FILLER_40_133
*1404 FILLER_40_139
*1405 FILLER_40_141
*1406 FILLER_40_153
*1407 FILLER_40_162
*1408 FILLER_40_168
*1409 FILLER_40_174
*1410 FILLER_40_180
*1411 FILLER_40_186
*1412 FILLER_40_194
*1413 FILLER_40_197
*1414 FILLER_40_20
*1415 FILLER_40_209
*1416 FILLER_40_221
*1417 FILLER_40_233
*1418 FILLER_40_245
*1419 FILLER_40_251
*1420 FILLER_40_253
*1421 FILLER_40_265
*1422 FILLER_40_277
*1423 FILLER_40_289
*1424 FILLER_40_29
*1425 FILLER_40_293
*1426 FILLER_40_297
*1427 FILLER_40_3
*1428 FILLER_40_41
*1429 FILLER_40_53
*1430 FILLER_40_65
*1431 FILLER_40_77
*1432 FILLER_40_8
*1433 FILLER_40_83
*1434 FILLER_40_85
*1435 FILLER_40_97
*1436 FILLER_41_105
*1437 FILLER_41_111
*1438 FILLER_41_113
*1439 FILLER_41_125
*1440 FILLER_41_137
*1441 FILLER_41_145
*1442 FILLER_41_149
*1443 FILLER_41_15
*1444 FILLER_41_161
*1445 FILLER_41_167
*1446 FILLER_41_169
*1447 FILLER_41_173
*1448 FILLER_41_185
*1449 FILLER_41_197
*1450 FILLER_41_209
*1451 FILLER_41_221
*1452 FILLER_41_225
*1453 FILLER_41_237
*1454 FILLER_41_249
*1455 FILLER_41_261
*1456 FILLER_41_27
*1457 FILLER_41_273
*1458 FILLER_41_279
*1459 FILLER_41_281
*1460 FILLER_41_289
*1461 FILLER_41_297
*1462 FILLER_41_3
*1463 FILLER_41_39
*1464 FILLER_41_51
*1465 FILLER_41_55
*1466 FILLER_41_57
*1467 FILLER_41_69
*1468 FILLER_41_81
*1469 FILLER_41_93
*1470 FILLER_42_109
*1471 FILLER_42_121
*1472 FILLER_42_133
*1473 FILLER_42_139
*1474 FILLER_42_141
*1475 FILLER_42_15
*1476 FILLER_42_153
*1477 FILLER_42_165
*1478 FILLER_42_177
*1479 FILLER_42_189
*1480 FILLER_42_195
*1481 FILLER_42_197
*1482 FILLER_42_209
*1483 FILLER_42_221
*1484 FILLER_42_233
*1485 FILLER_42_245
*1486 FILLER_42_251
*1487 FILLER_42_253
*1488 FILLER_42_265
*1489 FILLER_42_27
*1490 FILLER_42_277
*1491 FILLER_42_289
*1492 FILLER_42_29
*1493 FILLER_42_293
*1494 FILLER_42_297
*1495 FILLER_42_3
*1496 FILLER_42_41
*1497 FILLER_42_53
*1498 FILLER_42_65
*1499 FILLER_42_77
*1500 FILLER_42_83
*1501 FILLER_42_85
*1502 FILLER_42_97
*1503 FILLER_43_105
*1504 FILLER_43_111
*1505 FILLER_43_113
*1506 FILLER_43_125
*1507 FILLER_43_137
*1508 FILLER_43_149
*1509 FILLER_43_161
*1510 FILLER_43_167
*1511 FILLER_43_169
*1512 FILLER_43_181
*1513 FILLER_43_193
*1514 FILLER_43_20
*1515 FILLER_43_205
*1516 FILLER_43_217
*1517 FILLER_43_223
*1518 FILLER_43_225
*1519 FILLER_43_237
*1520 FILLER_43_249
*1521 FILLER_43_261
*1522 FILLER_43_273
*1523 FILLER_43_279
*1524 FILLER_43_281
*1525 FILLER_43_293
*1526 FILLER_43_297
*1527 FILLER_43_3
*1528 FILLER_43_32
*1529 FILLER_43_44
*1530 FILLER_43_57
*1531 FILLER_43_69
*1532 FILLER_43_8
*1533 FILLER_43_81
*1534 FILLER_43_93
*1535 FILLER_44_109
*1536 FILLER_44_121
*1537 FILLER_44_133
*1538 FILLER_44_139
*1539 FILLER_44_141
*1540 FILLER_44_153
*1541 FILLER_44_165
*1542 FILLER_44_177
*1543 FILLER_44_189
*1544 FILLER_44_195
*1545 FILLER_44_197
*1546 FILLER_44_20
*1547 FILLER_44_209
*1548 FILLER_44_221
*1549 FILLER_44_233
*1550 FILLER_44_245
*1551 FILLER_44_251
*1552 FILLER_44_253
*1553 FILLER_44_265
*1554 FILLER_44_277
*1555 FILLER_44_289
*1556 FILLER_44_29
*1557 FILLER_44_297
*1558 FILLER_44_3
*1559 FILLER_44_41
*1560 FILLER_44_53
*1561 FILLER_44_65
*1562 FILLER_44_77
*1563 FILLER_44_8
*1564 FILLER_44_83
*1565 FILLER_44_85
*1566 FILLER_44_97
*1567 FILLER_45_105
*1568 FILLER_45_111
*1569 FILLER_45_113
*1570 FILLER_45_125
*1571 FILLER_45_137
*1572 FILLER_45_149
*1573 FILLER_45_15
*1574 FILLER_45_161
*1575 FILLER_45_167
*1576 FILLER_45_169
*1577 FILLER_45_181
*1578 FILLER_45_193
*1579 FILLER_45_205
*1580 FILLER_45_217
*1581 FILLER_45_223
*1582 FILLER_45_225
*1583 FILLER_45_237
*1584 FILLER_45_249
*1585 FILLER_45_261
*1586 FILLER_45_27
*1587 FILLER_45_273
*1588 FILLER_45_279
*1589 FILLER_45_281
*1590 FILLER_45_289
*1591 FILLER_45_297
*1592 FILLER_45_3
*1593 FILLER_45_39
*1594 FILLER_45_51
*1595 FILLER_45_55
*1596 FILLER_45_57
*1597 FILLER_45_69
*1598 FILLER_45_81
*1599 FILLER_45_93
*1600 FILLER_46_109
*1601 FILLER_46_115
*1602 FILLER_46_122
*1603 FILLER_46_134
*1604 FILLER_46_141
*1605 FILLER_46_15
*1606 FILLER_46_153
*1607 FILLER_46_165
*1608 FILLER_46_173
*1609 FILLER_46_185
*1610 FILLER_46_193
*1611 FILLER_46_197
*1612 FILLER_46_209
*1613 FILLER_46_221
*1614 FILLER_46_233
*1615 FILLER_46_245
*1616 FILLER_46_251
*1617 FILLER_46_253
*1618 FILLER_46_265
*1619 FILLER_46_27
*1620 FILLER_46_277
*1621 FILLER_46_289
*1622 FILLER_46_29
*1623 FILLER_46_293
*1624 FILLER_46_297
*1625 FILLER_46_3
*1626 FILLER_46_41
*1627 FILLER_46_53
*1628 FILLER_46_65
*1629 FILLER_46_77
*1630 FILLER_46_83
*1631 FILLER_46_85
*1632 FILLER_46_97
*1633 FILLER_47_105
*1634 FILLER_47_111
*1635 FILLER_47_113